Circuit: * C:\users\mag98\My Documents\insa\3A\sem2\BE_elec\carte_alim\sim_carte_alim.asc

.OP point found by inspection.

Date: Thu Apr 15 09:40:50 2021
Total elapsed time: 0.047 seconds.

tnom = 27
temp = 27
method = modified trap
totiter = 2358
traniter = 2358
tranpoints = 1110
accept = 1102
rejected = 8
matrix size = 6
fillins = 0
solver = Normal
Matrix Compiler1: 414 bytes object code size  0.2/0.1/[0.1]
Matrix Compiler2: 476 bytes object code size  0.1/0.1/[0.1]

