Circuit: * C:\users\mag98\My Documents\insa\3A\sem2\BE_elec\carte_alim\sim_carte_alim.asc

.OP point found by inspection.

Date: Sat Apr 17 10:59:40 2021
Total elapsed time: 0.048 seconds.

tnom = 27
temp = 27
method = modified trap
totiter = 2398
traniter = 2398
tranpoints = 1105
accept = 1097
rejected = 8
matrix size = 6
fillins = 0
solver = Normal
Matrix Compiler1: 414 bytes object code size  0.2/0.1/[0.1]
Matrix Compiler2: off  [0.1]/0.1/0.1

